/*You are given weights and values of N items, put these items in a knapsack of capacity W to get the maximum total value in the knapsack. 
Note that we have only one quantity of each item.
In other words, given two integer arrays val[0..N-1] and wt[0..N-1] which represent values and weights associated with N items respectively.
 Also given an integer W which represents knapsack capacity, find out the maximum value subset of val[] such that sum of the weights of this
 subset is smaller than or equal to W. You cannot break an item, either pick the complete item, or don’t pick it (0-1 property).

Input:
The first line of input contains an integer T denoting the number of test cases. Then T test cases follow. Each test case consists of four lines.
The first line consists of N the number of items.
The second line consists of W, the maximum capacity of the knapsack.
In the next line are N space separated positive integers denoting the values of the N items,
and in the fourth line are N space separated positive integers denoting the weights of the corresponding items.

Output:
For each testcase, in a new line, print the maximum possible value you can get with the given conditions that you can obtain for each test case in a 
new line.

Constraints:
1 ≤ T ≤ 100
1 ≤ N ≤ 1000
1 ≤ W ≤ 1000
1 ≤ wt[i] ≤ 1000
1 ≤ v[i] ≤ 1000

Example:
Input:
2
3
4
1 2 3
4 5 1
3
3
1 2 3
4 5 6
Output:
3
0
Explanation:
Test Case 1: With W = 4, you can either choose the 0th item or the 2nd item. Thus, the maximum value you can generate is 
the max of val[0] and val[2], which is equal to 3.
Test Case 2: With W = 3, there is no item you can choose from the given list as all the items have weight greater than W. 
Thus, the maximum value you can generate is 0.*/
#include <stdio.h>
#include <stdlib.h>

int max(int x,int y)
{
    return (x>y)?x:y;    
}

/*int knapsack(int* wt,int* val,int w,int n)
{
    if(w==0 || n==0)
        return 0;
    
    if(wt[n-1]<=w)
    {
        return max(val[n-1]+knapsack(wt,val,w-wt[n-1],n-1),knapsack(wt,val,w,n-1));
    }
    
    else if(wt[n-1]>w)
    {
        return knapsack(wt,val,w,n-1);
    }
}
*/

int knapsack(int* wt,int* val,int w,int n)
{
    int dp[n+1][w+1];
    
    for(int i=0;i<=w;i++)
    {
        dp[0][i]=0;
    }
    
    for(int i=0;i<=n;i++)
    {
        dp[i][0]=0;
    }
    
    for(int i=1;i<=n;i++)
    {
        for(int j=1;j<=w;j++)
        {
            if(wt[i-1]<=j)
            {
                dp[i][j]=max(val[i-1]+dp[i-1][j-wt[i-1]],dp[i-1][j]);
            }
            else if(wt[i-1]>j)
            {
                dp[i][j]=dp[i-1][j];
            }
            
        }
    }
    
    return dp[n][w];
}

int main() {
	
	int t;
	scanf("%d",&t);
	
	while(t--)
	{
	    int n;
	    int w;
	    
	    scanf("%d",&n);
	    scanf("%d",&w);
	    
	    int* wt;
	    int* val;
	    
	    wt=(int*)malloc(sizeof(int)*n);
	    val=(int*)malloc(sizeof(int)*n);
	    
	    for(int i=0;i<n;i++)
	    {
	        scanf("%d",&val[i]);
	    }
	    
	    for(int i=0;i<n;i++)
	    {
	        scanf("%d",&wt[i]);
	    }
	    
	    printf("%d\n",knapsack(wt,val,w,n));
	}
	return 0;
}